1

   Abaqus 6.11-1                                  Date 28-Mar-2015   Time 12:49:06
   For use by Team AWXS under license from Dassault Systemes or its subsidiary.

                                                                                 
                                                                                 
 STEP    1     INCREMENT     1     STEP TIME    0.00    


                        S T E P       1     S T A T I C   A N A L Y S I S


                                                                                          

     AUTOMATIC TIME CONTROL WITH -
          A SUGGESTED INITIAL TIME INCREMENT OF                1.000E-02
          AND A TOTAL TIME PERIOD OF                            1.00    
          THE MINIMUM TIME INCREMENT ALLOWED IS                1.000E-06
          THE MAXIMUM TIME INCREMENT ALLOWED IS                0.100    

     LINEAR EQUATION SOLVER TYPE         DIRECT SPARSE

 CONVERGENCE TOLERANCE PARAMETERS FOR FORCE    
     CRITERION FOR RESIDUAL FORCE     FOR A NONLINEAR PROBLEM          5.000E-03
     CRITERION FOR DISP.    CORRECTION IN A NONLINEAR PROBLEM          1.000E-02
     INITIAL VALUE OF TIME AVERAGE FORCE                               1.000E-02
     AVERAGE FORCE     IS TIME AVERAGE FORCE    
     ALTERNATE CRIT. FOR RESIDUAL FORCE     FOR A NONLINEAR PROBLEM    2.000E-02
     CRITERION FOR ZERO FORCE     RELATIVE TO TIME AVRG. FORCE         1.000E-05
     CRITERION FOR RESIDUAL FORCE     WHEN THERE IS ZERO FLUX          1.000E-05
     CRITERION FOR DISP.    CORRECTION WHEN THERE IS ZERO FLUX         1.000E-03
     CRITERION FOR RESIDUAL FORCE     FOR A LINEAR INCREMENT           1.000E-08
     FIELD CONVERSION RATIO                                             1.00    
     CRITERION FOR ZERO FORCE     REL. TO TIME AVRG. MAX. FORCE        1.000E-05
     CRITERION FOR ZERO DISP.    RELATIVE TO CHARACTERISTIC LENGTH     1.000E-08

     VOLUMETRIC STRAIN COMPATIBILITY TOLERANCE FOR HYBRID SOLIDS       1.000E-05
     AXIAL STRAIN COMPATIBILITY TOLERANCE FOR HYBRID BEAMS             1.000E-05
     TRANS. SHEAR STRAIN COMPATIBILITY TOLERANCE FOR HYBRID BEAMS      1.000E-05
     SOFT CONTACT CONSTRAINT COMPATIBILITY TOLERANCE FOR P>P0          5.000E-03
     SOFT CONTACT CONSTRAINT COMPATIBILITY TOLERANCE FOR P=0.0         0.100    
     CONTACT FORCE ERROR TOLERANCE FOR CONVERT SDI=YES                 1.00    
     DISPLACEMENT COMPATIBILITY TOLERANCE FOR DCOUP ELEMENTS           1.000E-05
     ROTATION COMPATIBILITY TOLERANCE FOR DCOUP ELEMENTS               1.000E-05

 EQUILIBRIUM WILL BE CHECKED FOR SEVERE DISCONTINUITY ITERATIONS

 TIME INCREMENTATION CONTROL PARAMETERS:
     FIRST EQUILIBRIUM ITERATION FOR CONSECUTIVE DIVERGENCE CHECK              4
     EQUILIBRIUM ITERATION AT WHICH LOG. CONVERGENCE RATE CHECK BEGINS         8
     EQUILIBRIUM ITERATION AFTER WHICH ALTERNATE RESIDUAL IS USED              9
     MAXIMUM EQUILIBRIUM ITERATIONS ALLOWED                                   16
     EQUILIBRIUM ITERATION COUNT FOR CUT-BACK IN NEXT INCREMENT               10
     MAXIMUM EQUILIB. ITERS IN TWO INCREMENTS FOR TIME INCREMENT INCREASE      4
     MAXIMUM ITERATIONS FOR SEVERE DISCONTINUITIES                            50
     MAXIMUM CUT-BACKS ALLOWED IN AN INCREMENT                                 5
     MAXIMUM DISCON. ITERS IN TWO INCREMENTS FOR TIME INCREMENT INCREASE      50
     MAXIMUM CONTACT AUGMENTATIONS FOR *SURFACE BEHAVIOR,AUGMENTED LAGRANGE    6
     CUT-BACK FACTOR AFTER DIVERGENCE                                 0.2500    
     CUT-BACK FACTOR FOR TOO SLOW CONVERGENCE                         0.5000    
     CUT-BACK FACTOR AFTER TOO MANY EQUILIBRIUM ITERATIONS            0.7500    
     CUT-BACK FACTOR AFTER TOO MANY SEVERE DISCONTINUITY ITERATIONS   0.2500    
     CUT-BACK FACTOR AFTER PROBLEMS IN ELEMENT ASSEMBLY               0.2500    
     INCREASE FACTOR AFTER TWO INCREMENTS THAT CONVERGE QUICKLY        1.500    
     MAX. TIME INCREMENT INCREASE FACTOR ALLOWED                       1.500    
     MAX. TIME INCREMENT INCREASE FACTOR ALLOWED (DYNAMICS)            1.250    
     MAX. TIME INCREMENT INCREASE FACTOR ALLOWED (DIFFUSION)           2.000    
     MINIMUM TIME INCREMENT RATIO FOR EXTRAPOLATION TO OCCUR          0.1000    
     MAX. RATIO OF TIME INCREMENT TO STABILITY LIMIT                   1.000    
     FRACTION OF STABILITY LIMIT FOR NEW TIME INCREMENT               0.9500    
     TIME INCREMENT INCREASE FACTOR BEFORE A TIME POINT                1.000    
     GLOBAL STABILIZATION CONTROL IS NOT USED

          PRINT OF INCREMENT NUMBER, TIME, ETC., EVERY    1  INCREMENTS

     RESTART FILE WILL BE WRITTEN EVERY     1  INCREMENTS

     THE MAXIMUM NUMBER OF INCREMENTS IN THIS STEP IS                     100

     LINEAR EXTRAPOLATION WILL BE USED

     CHARACTERISTIC ELEMENT LENGTH      1.00    

     DETAILS REGARDING ACTUAL SOLUTION WAVEFRONT REQUESTED

     DETAILED OUTPUT OF DIAGNOSTICS TO DATABASE REQUESTED

     PRINT OF INCREMENT NUMBER, TIME, ETC., TO THE MESSAGE FILE EVERY     1  INCREMENTS

     EQUATIONS ARE BEING REORDERED TO MINIMIZE WAVEFRONT

     COLLECTING MODEL CONSTRAINT INFORMATION FOR OVERCONSTRAINT CHECKS

     COLLECTING STEP CONSTRAINT INFORMATION FOR OVERCONSTRAINT CHECKS


  INCREMENT     1 STARTS. ATTEMPT NUMBER  1, TIME INCREMENT  1.000E-02

  NUMBER OF EQUATIONS =       16     NUMBER OF FLOATING PT. OPERATIONS =  8.24E+02

     CHECK POINT   START OF SOLVER    

     CHECK POINT  END OF SOLVER       

       ELAPSED USER TIME (SEC)      =   0.0000    
       ELAPSED SYSTEM TIME (SEC)    =  1.00000E-02
       ELAPSED TOTAL CPU TIME (SEC) =  1.00000E-02
       ELAPSED WALLCLOCK TIME (SEC) =          0

               CONVERGENCE CHECKS FOR EQUILIBRIUM ITERATION     1


 AVERAGE FORCE                      3.612E-02   TIME AVG. FORCE       3.612E-02
 LARGEST RESIDUAL FORCE             2.322E-05   AT NODE          2   DOF  2
   INSTANCE: PART-1-1                                                                        
 LARGEST INCREMENT OF DISP.         5.000E-05   AT NODE          1   DOF  2
   INSTANCE: PART-1-1                                                                        
 LARGEST CORRECTION TO DISP.        5.000E-05   AT NODE          1   DOF  2
   INSTANCE: PART-1-1                                                                        
          DISP.    CORRECTION TOO LARGE COMPARED TO DISP.    INCREMENT

  NUMBER OF EQUATIONS =       16     NUMBER OF FLOATING PT. OPERATIONS =  8.24E+02

     CHECK POINT   START OF SOLVER    

     CHECK POINT  END OF SOLVER       

       ELAPSED USER TIME (SEC)      =   0.0000    
       ELAPSED SYSTEM TIME (SEC)    =   0.0000    
       ELAPSED TOTAL CPU TIME (SEC) =   0.0000    
       ELAPSED WALLCLOCK TIME (SEC) =          0

               CONVERGENCE CHECKS FOR EQUILIBRIUM ITERATION     2


 AVERAGE FORCE                      3.612E-02   TIME AVG. FORCE       3.612E-02
 LARGEST RESIDUAL FORCE             3.342E-12   AT NODE          2   DOF  2
   INSTANCE: PART-1-1                                                                        
 LARGEST INCREMENT OF DISP.         5.000E-05   AT NODE          1   DOF  2
   INSTANCE: PART-1-1                                                                        
 LARGEST CORRECTION TO DISP.        7.843E-10   AT NODE          2   DOF  2
   INSTANCE: PART-1-1                                                                        
          THE FORCE     EQUILIBRIUM EQUATIONS HAVE CONVERGED

 ITERATION SUMMARY FOR THE INCREMENT:   2 TOTAL ITERATIONS, OF WHICH
   0 ARE SEVERE DISCONTINUITY ITERATIONS AND  2 ARE EQUILIBRIUM ITERATIONS.

 TIME INCREMENT COMPLETED  1.000E-02,  FRACTION OF STEP COMPLETED  1.000E-02
 STEP TIME COMPLETED       1.000E-02,  TOTAL TIME COMPLETED        1.000E-02

     RESTART INFORMATION WRITTEN IN STEP   1  AFTER INCREMENT     1


  INCREMENT     2 STARTS. ATTEMPT NUMBER  1, TIME INCREMENT  1.000E-02

  NUMBER OF EQUATIONS =       16     NUMBER OF FLOATING PT. OPERATIONS =  8.24E+02

     CHECK POINT   START OF SOLVER    

     CHECK POINT  END OF SOLVER       

       ELAPSED USER TIME (SEC)      =   0.0000    
       ELAPSED SYSTEM TIME (SEC)    =   0.0000    
       ELAPSED TOTAL CPU TIME (SEC) =   0.0000    
       ELAPSED WALLCLOCK TIME (SEC) =          0

               CONVERGENCE CHECKS FOR EQUILIBRIUM ITERATION     1


 AVERAGE FORCE                      8.668E-02   TIME AVG. FORCE       6.140E-02
 LARGEST RESIDUAL FORCE            -1.339E-11   AT NODE          7   DOF  2
   INSTANCE: PART-1-1                                                                        
 LARGEST INCREMENT OF DISP.         5.000E-05   AT NODE          1   DOF  2
   INSTANCE: PART-1-1                                                                        
 LARGEST CORRECTION TO DISP.        1.570E-09   AT NODE          5   DOF  2
   INSTANCE: PART-1-1                                                                        
          THE FORCE     EQUILIBRIUM RESPONSE WAS LINEAR IN THIS INCREMENT
          TIME INCREMENT MAY NOW INCREASE TO    1.500E-02

 ITERATION SUMMARY FOR THE INCREMENT:   1 TOTAL ITERATIONS, OF WHICH
   0 ARE SEVERE DISCONTINUITY ITERATIONS AND  1 ARE EQUILIBRIUM ITERATIONS.

 TIME INCREMENT COMPLETED  1.000E-02,  FRACTION OF STEP COMPLETED  2.000E-02
 STEP TIME COMPLETED       2.000E-02,  TOTAL TIME COMPLETED        2.000E-02

     RESTART INFORMATION WRITTEN IN STEP   1  AFTER INCREMENT     2


  INCREMENT     3 STARTS. ATTEMPT NUMBER  1, TIME INCREMENT  1.500E-02

  NUMBER OF EQUATIONS =       16     NUMBER OF FLOATING PT. OPERATIONS =  8.24E+02

     CHECK POINT   START OF SOLVER    

     CHECK POINT  END OF SOLVER       

       ELAPSED USER TIME (SEC)      =   0.0000    
       ELAPSED SYSTEM TIME (SEC)    =   0.0000    
       ELAPSED TOTAL CPU TIME (SEC) =   0.0000    
       ELAPSED WALLCLOCK TIME (SEC) =          0

               CONVERGENCE CHECKS FOR EQUILIBRIUM ITERATION     1


 AVERAGE FORCE                      0.152       TIME AVG. FORCE       9.149E-02
 LARGEST RESIDUAL FORCE            -9.937E-08   AT NODE          8   DOF  2
   INSTANCE: PART-1-1                                                                        
 LARGEST INCREMENT OF DISP.         7.500E-05   AT NODE          1   DOF  2
   INSTANCE: PART-1-1                                                                        
 LARGEST CORRECTION TO DISP.        2.947E-09   AT NODE          2   DOF  2
   INSTANCE: PART-1-1                                                                        
          THE FORCE     EQUILIBRIUM EQUATIONS HAVE CONVERGED
          TIME INCREMENT MAY NOW INCREASE TO    2.250E-02

 ITERATION SUMMARY FOR THE INCREMENT:   1 TOTAL ITERATIONS, OF WHICH
   0 ARE SEVERE DISCONTINUITY ITERATIONS AND  1 ARE EQUILIBRIUM ITERATIONS.

 TIME INCREMENT COMPLETED  1.500E-02,  FRACTION OF STEP COMPLETED  3.500E-02
 STEP TIME COMPLETED       3.500E-02,  TOTAL TIME COMPLETED        3.500E-02

     RESTART INFORMATION WRITTEN IN STEP   1  AFTER INCREMENT     3


  INCREMENT     4 STARTS. ATTEMPT NUMBER  1, TIME INCREMENT  2.250E-02

  NUMBER OF EQUATIONS =       16     NUMBER OF FLOATING PT. OPERATIONS =  8.24E+02

     CHECK POINT   START OF SOLVER    

     CHECK POINT  END OF SOLVER       

       ELAPSED USER TIME (SEC)      =  1.00000E-02
       ELAPSED SYSTEM TIME (SEC)    =   0.0000    
       ELAPSED TOTAL CPU TIME (SEC) =  1.00000E-02
       ELAPSED WALLCLOCK TIME (SEC) =          0

               CONVERGENCE CHECKS FOR EQUILIBRIUM ITERATION     1


 AVERAGE FORCE                      0.249       TIME AVG. FORCE       0.131    
 LARGEST RESIDUAL FORCE            -2.405E-10   AT NODE          8   DOF  2
   INSTANCE: PART-1-1                                                                        
 LARGEST INCREMENT OF DISP.         1.125E-04   AT NODE          1   DOF  2
   INSTANCE: PART-1-1                                                                        
 LARGEST CORRECTION TO DISP.       -6.663E-09   AT NODE          8   DOF  2
   INSTANCE: PART-1-1                                                                        
          THE FORCE     EQUILIBRIUM RESPONSE WAS LINEAR IN THIS INCREMENT
          TIME INCREMENT MAY NOW INCREASE TO    3.375E-02

 ITERATION SUMMARY FOR THE INCREMENT:   1 TOTAL ITERATIONS, OF WHICH
   0 ARE SEVERE DISCONTINUITY ITERATIONS AND  1 ARE EQUILIBRIUM ITERATIONS.

 TIME INCREMENT COMPLETED  2.250E-02,  FRACTION OF STEP COMPLETED  5.750E-02
 STEP TIME COMPLETED       5.750E-02,  TOTAL TIME COMPLETED        5.750E-02

     RESTART INFORMATION WRITTEN IN STEP   1  AFTER INCREMENT     4


  INCREMENT     5 STARTS. ATTEMPT NUMBER  1, TIME INCREMENT  3.375E-02

  NUMBER OF EQUATIONS =       16     NUMBER OF FLOATING PT. OPERATIONS =  8.24E+02

     CHECK POINT   START OF SOLVER    

     CHECK POINT  END OF SOLVER       

       ELAPSED USER TIME (SEC)      =   0.0000    
       ELAPSED SYSTEM TIME (SEC)    =   0.0000    
       ELAPSED TOTAL CPU TIME (SEC) =   0.0000    
       ELAPSED WALLCLOCK TIME (SEC) =          0

               CONVERGENCE CHECKS FOR EQUILIBRIUM ITERATION     1


 AVERAGE FORCE                      0.395       TIME AVG. FORCE       0.184    
 LARGEST RESIDUAL FORCE             1.138E-06   AT NODE          5   DOF  2
   INSTANCE: PART-1-1                                                                        
 LARGEST INCREMENT OF DISP.         1.688E-04   AT NODE          1   DOF  2
   INSTANCE: PART-1-1                                                                        
 LARGEST CORRECTION TO DISP.        1.499E-08   AT NODE          2   DOF  2
   INSTANCE: PART-1-1                                                                        
          THE FORCE     EQUILIBRIUM EQUATIONS HAVE CONVERGED
          TIME INCREMENT MAY NOW INCREASE TO    5.063E-02

 ITERATION SUMMARY FOR THE INCREMENT:   1 TOTAL ITERATIONS, OF WHICH
   0 ARE SEVERE DISCONTINUITY ITERATIONS AND  1 ARE EQUILIBRIUM ITERATIONS.

 TIME INCREMENT COMPLETED  3.375E-02,  FRACTION OF STEP COMPLETED  9.125E-02
 STEP TIME COMPLETED       9.125E-02,  TOTAL TIME COMPLETED        9.125E-02

     RESTART INFORMATION WRITTEN IN STEP   1  AFTER INCREMENT     5


  INCREMENT     6 STARTS. ATTEMPT NUMBER  1, TIME INCREMENT  5.063E-02

  NUMBER OF EQUATIONS =       16     NUMBER OF FLOATING PT. OPERATIONS =  8.24E+02

     CHECK POINT   START OF SOLVER    

     CHECK POINT  END OF SOLVER       

       ELAPSED USER TIME (SEC)      =   0.0000    
       ELAPSED SYSTEM TIME (SEC)    =   0.0000    
       ELAPSED TOTAL CPU TIME (SEC) =   0.0000    
       ELAPSED WALLCLOCK TIME (SEC) =          0

               CONVERGENCE CHECKS FOR EQUILIBRIUM ITERATION     1


 AVERAGE FORCE                      0.615       TIME AVG. FORCE       0.256    
 LARGEST RESIDUAL FORCE             6.274E-09   AT NODE          2   DOF  2
   INSTANCE: PART-1-1                                                                        
 LARGEST INCREMENT OF DISP.         2.531E-04   AT NODE          1   DOF  2
   INSTANCE: PART-1-1                                                                        
 LARGEST CORRECTION TO DISP.       -3.412E-08   AT NODE          7   DOF  2
   INSTANCE: PART-1-1                                                                        
          THE FORCE     EQUILIBRIUM EQUATIONS HAVE CONVERGED
          TIME INCREMENT MAY NOW INCREASE TO    7.594E-02

 ITERATION SUMMARY FOR THE INCREMENT:   1 TOTAL ITERATIONS, OF WHICH
   0 ARE SEVERE DISCONTINUITY ITERATIONS AND  1 ARE EQUILIBRIUM ITERATIONS.

 TIME INCREMENT COMPLETED  5.063E-02,  FRACTION OF STEP COMPLETED  0.142    
 STEP TIME COMPLETED       0.142    ,  TOTAL TIME COMPLETED        0.142    

     RESTART INFORMATION WRITTEN IN STEP   1  AFTER INCREMENT     6


  INCREMENT     7 STARTS. ATTEMPT NUMBER  1, TIME INCREMENT  7.594E-02

  NUMBER OF EQUATIONS =       16     NUMBER OF FLOATING PT. OPERATIONS =  8.24E+02

     CHECK POINT   START OF SOLVER    

     CHECK POINT  END OF SOLVER       

       ELAPSED USER TIME (SEC)      =   0.0000    
       ELAPSED SYSTEM TIME (SEC)    =   0.0000    
       ELAPSED TOTAL CPU TIME (SEC) =   0.0000    
       ELAPSED WALLCLOCK TIME (SEC) =          0

               CONVERGENCE CHECKS FOR EQUILIBRIUM ITERATION     1


 AVERAGE FORCE                      0.943       TIME AVG. FORCE       0.354    
 LARGEST RESIDUAL FORCE             3.195E-08   AT NODE          2   DOF  2
   INSTANCE: PART-1-1                                                                        
 LARGEST INCREMENT OF DISP.         3.797E-04   AT NODE          1   DOF  2
   INSTANCE: PART-1-1                                                                        
 LARGEST CORRECTION TO DISP.        7.719E-08   AT NODE          2   DOF  2
   INSTANCE: PART-1-1                                                                        
          THE FORCE     EQUILIBRIUM EQUATIONS HAVE CONVERGED
          TIME INCREMENT MAY NOW INCREASE TO    0.100    

 ITERATION SUMMARY FOR THE INCREMENT:   1 TOTAL ITERATIONS, OF WHICH
   0 ARE SEVERE DISCONTINUITY ITERATIONS AND  1 ARE EQUILIBRIUM ITERATIONS.

 TIME INCREMENT COMPLETED  7.594E-02,  FRACTION OF STEP COMPLETED  0.218    
 STEP TIME COMPLETED       0.218    ,  TOTAL TIME COMPLETED        0.218    

     RESTART INFORMATION WRITTEN IN STEP   1  AFTER INCREMENT     7


  INCREMENT     8 STARTS. ATTEMPT NUMBER  1, TIME INCREMENT  0.100    

  NUMBER OF EQUATIONS =       16     NUMBER OF FLOATING PT. OPERATIONS =  8.24E+02

     CHECK POINT   START OF SOLVER    

     CHECK POINT  END OF SOLVER       

       ELAPSED USER TIME (SEC)      =   0.0000    
       ELAPSED SYSTEM TIME (SEC)    =   0.0000    
       ELAPSED TOTAL CPU TIME (SEC) =   0.0000    
       ELAPSED WALLCLOCK TIME (SEC) =          0

               CONVERGENCE CHECKS FOR EQUILIBRIUM ITERATION     1


 AVERAGE FORCE                       1.38       TIME AVG. FORCE       0.482    
 LARGEST RESIDUAL FORCE             1.093E-07   AT NODE          5   DOF  2
   INSTANCE: PART-1-1                                                                        
 LARGEST INCREMENT OF DISP.         5.000E-04   AT NODE          1   DOF  2
   INSTANCE: PART-1-1                                                                        
 LARGEST CORRECTION TO DISP.       -1.432E-07   AT NODE          8   DOF  2
   INSTANCE: PART-1-1                                                                        
          THE FORCE     EQUILIBRIUM EQUATIONS HAVE CONVERGED

 ITERATION SUMMARY FOR THE INCREMENT:   1 TOTAL ITERATIONS, OF WHICH
   0 ARE SEVERE DISCONTINUITY ITERATIONS AND  1 ARE EQUILIBRIUM ITERATIONS.

 TIME INCREMENT COMPLETED  0.100    ,  FRACTION OF STEP COMPLETED  0.318    
 STEP TIME COMPLETED       0.318    ,  TOTAL TIME COMPLETED        0.318    

     RESTART INFORMATION WRITTEN IN STEP   1  AFTER INCREMENT     8


  INCREMENT     9 STARTS. ATTEMPT NUMBER  1, TIME INCREMENT  0.100    

  NUMBER OF EQUATIONS =       16     NUMBER OF FLOATING PT. OPERATIONS =  8.24E+02

     CHECK POINT   START OF SOLVER    

     CHECK POINT  END OF SOLVER       

       ELAPSED USER TIME (SEC)      =   0.0000    
       ELAPSED SYSTEM TIME (SEC)    =   0.0000    
       ELAPSED TOTAL CPU TIME (SEC) =   0.0000    
       ELAPSED WALLCLOCK TIME (SEC) =          0

               CONVERGENCE CHECKS FOR EQUILIBRIUM ITERATION     1


 AVERAGE FORCE                       1.81       TIME AVG. FORCE       0.629    
 LARGEST RESIDUAL FORCE             1.448E-07   AT NODE          5   DOF  2
   INSTANCE: PART-1-1                                                                        
 LARGEST INCREMENT OF DISP.         5.000E-04   AT NODE          1   DOF  2
   INSTANCE: PART-1-1                                                                        
 LARGEST CORRECTION TO DISP.       -1.654E-07   AT NODE          7   DOF  2
   INSTANCE: PART-1-1                                                                        
          THE FORCE     EQUILIBRIUM EQUATIONS HAVE CONVERGED

 ITERATION SUMMARY FOR THE INCREMENT:   1 TOTAL ITERATIONS, OF WHICH
   0 ARE SEVERE DISCONTINUITY ITERATIONS AND  1 ARE EQUILIBRIUM ITERATIONS.

 TIME INCREMENT COMPLETED  0.100    ,  FRACTION OF STEP COMPLETED  0.418    
 STEP TIME COMPLETED       0.418    ,  TOTAL TIME COMPLETED        0.418    

     RESTART INFORMATION WRITTEN IN STEP   1  AFTER INCREMENT     9


  INCREMENT    10 STARTS. ATTEMPT NUMBER  1, TIME INCREMENT  0.100    

  NUMBER OF EQUATIONS =       16     NUMBER OF FLOATING PT. OPERATIONS =  8.24E+02

     CHECK POINT   START OF SOLVER    

     CHECK POINT  END OF SOLVER       

       ELAPSED USER TIME (SEC)      =   0.0000    
       ELAPSED SYSTEM TIME (SEC)    =   0.0000    
       ELAPSED TOTAL CPU TIME (SEC) =   0.0000    
       ELAPSED WALLCLOCK TIME (SEC) =          0

               CONVERGENCE CHECKS FOR EQUILIBRIUM ITERATION     1


 AVERAGE FORCE                       2.24       TIME AVG. FORCE       0.790    
 LARGEST RESIDUAL FORCE             1.489E-07   AT NODE          2   DOF  2
   INSTANCE: PART-1-1                                                                        
 LARGEST INCREMENT OF DISP.         5.000E-04   AT NODE          1   DOF  2
   INSTANCE: PART-1-1                                                                        
 LARGEST CORRECTION TO DISP.       -1.682E-07   AT NODE          7   DOF  2
   INSTANCE: PART-1-1                                                                        
          THE FORCE     EQUILIBRIUM EQUATIONS HAVE CONVERGED

 ITERATION SUMMARY FOR THE INCREMENT:   1 TOTAL ITERATIONS, OF WHICH
   0 ARE SEVERE DISCONTINUITY ITERATIONS AND  1 ARE EQUILIBRIUM ITERATIONS.

 TIME INCREMENT COMPLETED  0.100    ,  FRACTION OF STEP COMPLETED  0.518    
 STEP TIME COMPLETED       0.518    ,  TOTAL TIME COMPLETED        0.518    

     RESTART INFORMATION WRITTEN IN STEP   1  AFTER INCREMENT    10


  INCREMENT    11 STARTS. ATTEMPT NUMBER  1, TIME INCREMENT  0.100    

  NUMBER OF EQUATIONS =       16     NUMBER OF FLOATING PT. OPERATIONS =  8.24E+02

     CHECK POINT   START OF SOLVER    

     CHECK POINT  END OF SOLVER       

       ELAPSED USER TIME (SEC)      =   0.0000    
       ELAPSED SYSTEM TIME (SEC)    =   0.0000    
       ELAPSED TOTAL CPU TIME (SEC) =   0.0000    
       ELAPSED WALLCLOCK TIME (SEC) =          0

               CONVERGENCE CHECKS FOR EQUILIBRIUM ITERATION     1


 AVERAGE FORCE                       2.67       TIME AVG. FORCE       0.961    
 LARGEST RESIDUAL FORCE             1.531E-07   AT NODE          5   DOF  2
   INSTANCE: PART-1-1                                                                        
 LARGEST INCREMENT OF DISP.         5.000E-04   AT NODE          1   DOF  2
   INSTANCE: PART-1-1                                                                        
 LARGEST CORRECTION TO DISP.        1.712E-07   AT NODE          2   DOF  2
   INSTANCE: PART-1-1                                                                        
          THE FORCE     EQUILIBRIUM EQUATIONS HAVE CONVERGED

 ITERATION SUMMARY FOR THE INCREMENT:   1 TOTAL ITERATIONS, OF WHICH
   0 ARE SEVERE DISCONTINUITY ITERATIONS AND  1 ARE EQUILIBRIUM ITERATIONS.

 TIME INCREMENT COMPLETED  0.100    ,  FRACTION OF STEP COMPLETED  0.618    
 STEP TIME COMPLETED       0.618    ,  TOTAL TIME COMPLETED        0.618    

     RESTART INFORMATION WRITTEN IN STEP   1  AFTER INCREMENT    11


  INCREMENT    12 STARTS. ATTEMPT NUMBER  1, TIME INCREMENT  0.100    

  NUMBER OF EQUATIONS =       16     NUMBER OF FLOATING PT. OPERATIONS =  8.24E+02

     CHECK POINT   START OF SOLVER    

     CHECK POINT  END OF SOLVER       

       ELAPSED USER TIME (SEC)      =   0.0000    
       ELAPSED SYSTEM TIME (SEC)    =   0.0000    
       ELAPSED TOTAL CPU TIME (SEC) =   0.0000    
       ELAPSED WALLCLOCK TIME (SEC) =          0

               CONVERGENCE CHECKS FOR EQUILIBRIUM ITERATION     1


 AVERAGE FORCE                       3.10       TIME AVG. FORCE        1.14    
 LARGEST RESIDUAL FORCE             1.575E-07   AT NODE          5   DOF  2
   INSTANCE: PART-1-1                                                                        
 LARGEST INCREMENT OF DISP.         5.000E-04   AT NODE          1   DOF  2
   INSTANCE: PART-1-1                                                                        
 LARGEST CORRECTION TO DISP.        1.742E-07   AT NODE          5   DOF  2
   INSTANCE: PART-1-1                                                                        
          THE FORCE     EQUILIBRIUM EQUATIONS HAVE CONVERGED

 ITERATION SUMMARY FOR THE INCREMENT:   1 TOTAL ITERATIONS, OF WHICH
   0 ARE SEVERE DISCONTINUITY ITERATIONS AND  1 ARE EQUILIBRIUM ITERATIONS.

 TIME INCREMENT COMPLETED  0.100    ,  FRACTION OF STEP COMPLETED  0.718    
 STEP TIME COMPLETED       0.718    ,  TOTAL TIME COMPLETED        0.718    

     RESTART INFORMATION WRITTEN IN STEP   1  AFTER INCREMENT    12


  INCREMENT    13 STARTS. ATTEMPT NUMBER  1, TIME INCREMENT  0.100    

  NUMBER OF EQUATIONS =       16     NUMBER OF FLOATING PT. OPERATIONS =  8.24E+02

     CHECK POINT   START OF SOLVER    

     CHECK POINT  END OF SOLVER       

       ELAPSED USER TIME (SEC)      =   0.0000    
       ELAPSED SYSTEM TIME (SEC)    =   0.0000    
       ELAPSED TOTAL CPU TIME (SEC) =   0.0000    
       ELAPSED WALLCLOCK TIME (SEC) =          0

               CONVERGENCE CHECKS FOR EQUILIBRIUM ITERATION     1


 AVERAGE FORCE                       3.53       TIME AVG. FORCE        1.32    
 LARGEST RESIDUAL FORCE             1.621E-07   AT NODE          2   DOF  2
   INSTANCE: PART-1-1                                                                        
 LARGEST INCREMENT OF DISP.         5.000E-04   AT NODE          1   DOF  2
   INSTANCE: PART-1-1                                                                        
 LARGEST CORRECTION TO DISP.       -1.773E-07   AT NODE          8   DOF  2
   INSTANCE: PART-1-1                                                                        
          THE FORCE     EQUILIBRIUM EQUATIONS HAVE CONVERGED

 ITERATION SUMMARY FOR THE INCREMENT:   1 TOTAL ITERATIONS, OF WHICH
   0 ARE SEVERE DISCONTINUITY ITERATIONS AND  1 ARE EQUILIBRIUM ITERATIONS.

 TIME INCREMENT COMPLETED  0.100    ,  FRACTION OF STEP COMPLETED  0.818    
 STEP TIME COMPLETED       0.818    ,  TOTAL TIME COMPLETED        0.818    

     RESTART INFORMATION WRITTEN IN STEP   1  AFTER INCREMENT    13


  INCREMENT    14 STARTS. ATTEMPT NUMBER  1, TIME INCREMENT  0.100    

  NUMBER OF EQUATIONS =       16     NUMBER OF FLOATING PT. OPERATIONS =  8.24E+02

     CHECK POINT   START OF SOLVER    

     CHECK POINT  END OF SOLVER       

       ELAPSED USER TIME (SEC)      =   0.0000    
       ELAPSED SYSTEM TIME (SEC)    =   0.0000    
       ELAPSED TOTAL CPU TIME (SEC) =   0.0000    
       ELAPSED WALLCLOCK TIME (SEC) =          0

               CONVERGENCE CHECKS FOR EQUILIBRIUM ITERATION     1


 AVERAGE FORCE                       3.96       TIME AVG. FORCE        1.51    
 LARGEST RESIDUAL FORCE             1.669E-07   AT NODE          5   DOF  2
   INSTANCE: PART-1-1                                                                        
 LARGEST INCREMENT OF DISP.         5.000E-04   AT NODE          1   DOF  2
   INSTANCE: PART-1-1                                                                        
 LARGEST CORRECTION TO DISP.        1.805E-07   AT NODE          2   DOF  2
   INSTANCE: PART-1-1                                                                        
          THE FORCE     EQUILIBRIUM EQUATIONS HAVE CONVERGED

 ITERATION SUMMARY FOR THE INCREMENT:   1 TOTAL ITERATIONS, OF WHICH
   0 ARE SEVERE DISCONTINUITY ITERATIONS AND  1 ARE EQUILIBRIUM ITERATIONS.

 TIME INCREMENT COMPLETED  0.100    ,  FRACTION OF STEP COMPLETED  0.918    
 STEP TIME COMPLETED       0.918    ,  TOTAL TIME COMPLETED        0.918    

     RESTART INFORMATION WRITTEN IN STEP   1  AFTER INCREMENT    14


  INCREMENT    15 STARTS. ATTEMPT NUMBER  1, TIME INCREMENT  8.219E-02

  NUMBER OF EQUATIONS =       16     NUMBER OF FLOATING PT. OPERATIONS =  8.24E+02

     CHECK POINT   START OF SOLVER    

     CHECK POINT  END OF SOLVER       

       ELAPSED USER TIME (SEC)      =   0.0000    
       ELAPSED SYSTEM TIME (SEC)    =   0.0000    
       ELAPSED TOTAL CPU TIME (SEC) =   0.0000    
       ELAPSED WALLCLOCK TIME (SEC) =          0

               CONVERGENCE CHECKS FOR EQUILIBRIUM ITERATION     1


 AVERAGE FORCE                       4.32       TIME AVG. FORCE        1.70    
 LARGEST RESIDUAL FORCE             9.623E-08   AT NODE          2   DOF  2
   INSTANCE: PART-1-1                                                                        
 LARGEST INCREMENT OF DISP.         4.109E-04   AT NODE          1   DOF  2
   INSTANCE: PART-1-1                                                                        
 LARGEST CORRECTION TO DISP.        1.374E-07   AT NODE          5   DOF  2
   INSTANCE: PART-1-1                                                                        
          THE FORCE     EQUILIBRIUM EQUATIONS HAVE CONVERGED

 ITERATION SUMMARY FOR THE INCREMENT:   1 TOTAL ITERATIONS, OF WHICH
   0 ARE SEVERE DISCONTINUITY ITERATIONS AND  1 ARE EQUILIBRIUM ITERATIONS.

 TIME INCREMENT COMPLETED  8.219E-02,  FRACTION OF STEP COMPLETED   1.00    
 STEP TIME COMPLETED        1.00    ,  TOTAL TIME COMPLETED         1.00    

     RESTART INFORMATION WRITTEN IN STEP   1  AFTER INCREMENT    15


          THE ANALYSIS HAS BEEN COMPLETED



     ANALYSIS SUMMARY:
     TOTAL OF         15  INCREMENTS
                       0  CUTBACKS IN AUTOMATIC INCREMENTATION
                      16  ITERATIONS INCLUDING CONTACT ITERATIONS IF PRESENT
                      16  PASSES THROUGH THE EQUATION SOLVER OF WHICH 
                      14  INVOLVE MATRIX DECOMPOSITION, INCLUDING
                       0  DECOMPOSITION(S) OF THE MASS MATRIX
                       1  REORDERING OF EQUATIONS TO MINIMIZE WAVEFRONT
                       0  ADDITIONAL RESIDUAL EVALUATIONS FOR LINE SEARCHES
                       0  ADDITIONAL OPERATOR EVALUATIONS FOR LINE SEARCHES
                       3  WARNING MESSAGES DURING USER INPUT PROCESSING
                       0  WARNING MESSAGES DURING ANALYSIS
                       0  ANALYSIS WARNINGS ARE NUMERICAL PROBLEM MESSAGES
                       0  ANALYSIS WARNINGS ARE NEGATIVE EIGENVALUE MESSAGES
                       0  ERROR MESSAGES



     JOB TIME SUMMARY
       USER TIME (SEC)      =  0.34000    
       SYSTEM TIME (SEC)    =  5.00000E-02
       TOTAL CPU TIME (SEC) =  0.39000    
       WALLCLOCK TIME (SEC) =          0
